LTspice 24.0.12 for Windows
Circuit: * C:\Users\aksha\OneDrive - International Institute of Information Technology\Desktop\M-24\EW-1\Draft11.asc
Start Time: Mon Feb  3 19:47:06 2025
solver = Normal
Maximum thread count: 12
tnom = 27
temp = 27
method = modified trap
.OP point found by inspection.
Total elapsed time: 0.072 seconds.

