Questionable use of curly braces in "v1 k 0 {v}"
    Error: undefined symbol in: "[v]"
LTspice 24.0.12 for Windows
Circuit: * C:\Users\aksha\OneDrive - International Institute of Information Technology\Desktop\M-24\EW-1\Draft2.asc
Start Time: Mon Feb  3 18:59:41 2025
Error on line 4 : v1 k 0 (v)
	 Unknown parameter "v"
solver = Normal
Maximum thread count: 12
tnom = 27
temp = 27
method = modified trap
v1: Missing value, assumed 0V @ DC
.OP point found by inspection.
Total elapsed time: 0.068 seconds.

