LTspice 24.0.12 for Windows
Circuit: * C:\Users\aksha\OneDrive - International Institute of Information Technology\Desktop\M-24\EW-1\Draft6.asc
Start Time: Sun Jan 26 19:47:36 2025
solver = Normal
Maximum thread count: 12
tnom = 27
temp = 27
method = modified trap
.OP point found by inspection.
Total elapsed time: 0.073 seconds.

