LTspice 24.0.12 for Windows
Circuit: * C:\Users\aksha\OneDrive - International Institute of Information Technology\Desktop\M-24\EW-1\LTSpice\Draft3.asc
Start Time: Thu Oct  3 11:26:55 2024
solver = Normal
Maximum thread count: 12
tnom = 27
temp = 27
method = modified trap
.OP point found by inspection.
Total elapsed time: 0.074 seconds.

