LTspice 24.0.12 for Windows
Circuit: * C:\Users\aksha\Desktop\BUNNY\S-25\AEC\Project\mixer.asc
Start Time: Fri Dec 12 15:37:04 2025
Ignoring BSIM parameter XL
Ignoring BSIM parameter XW
solver = Normal
Maximum thread count: 12
tnom = 27
temp = 27
method = modified trap
WARNING: Less than two connections to node v+.  This node is used by v4.
WARNING: Less than two connections to node v-.  This node is used by v5.
Direct Newton iteration for .op point succeeded.
Total elapsed time: 0.822 seconds.

